/*--------------------------------*- C++ -*----------------------------------*\
  =========                 |
  \\      /  F ield         | OpenFOAM: The Open Source CFD Toolbox
   \\    /   O peration     | Website:  https://openfoam.org
    \\  /    A nd           | Version:  6
     \\/     M anipulation  |
\*---------------------------------------------------------------------------*/
FoamFile
{
    version     2.0;
    format      ascii;
    class       volVectorField;
    location    "0";
    object      U;
}
// * * * * * * * * * * * * * * * * * * * * * * * * * * * * * * * * * * * * * //

dimensions      [0 1 -1 0 0 0 0];

internalField	uniform (0 0 0);

convertToSIflow 6.30902e-05;  //units:  gpm

boundaryField
{

    #includeEtc    "caseDicts/setConstraintTypes"
    
    OUTLET_4
    {
        type        flowRateOutletVelocity;
        volumetricFlowRate	0.26497884;
        value       $internalField;
    }
}

// ************************************************************************* //
